<?xml version="1.0" encoding="UTF-8"?>

<vehicleDefinitions xmlns="http://www.matsim.org/files/dtd" xmlns:xsi="http://www.w3.org/2001/XMLSchema-instance" xsi:schemaLocation="http://www.matsim.org/files/dtd http://www.matsim.org/files/dtd/vehicleDefinitions_v2.0.xsd">

	<vehicleType id="Bus">
		<attributes>
			<attribute name="accessTimeInSecondsPerPerson" class="java.lang.Double">0.5</attribute>
			<attribute name="doorOperationMode" class="org.matsim.vehicles.VehicleType$DoorOperationMode">serial</attribute>
			<attribute name="egressTimeInSecondsPerPerson" class="java.lang.Double">0.5</attribute>
		</attributes>
		<capacity seats="7" standingRoomInPersons="0">

		</capacity>
		<length meter="5.0"/>
		<width meter="2.5"/>
		<costInformation>

		</costInformation>
		<passengerCarEquivalents pce="1"/>
		<networkMode networkMode="bus"/>
		<flowEfficiencyFactor factor="1.0"/>
	</vehicleType>

	<vehicleType id="Tram">
		<attributes>
			<attribute name="accessTimeInSecondsPerPerson" class="java.lang.Double">0.25</attribute>
			<attribute name="doorOperationMode" class="org.matsim.vehicles.VehicleType$DoorOperationMode">serial</attribute>
			<attribute name="egressTimeInSecondsPerPerson" class="java.lang.Double">0.25</attribute>
		</attributes>
		<capacity seats="18" standingRoomInPersons="0">

		</capacity>
		<length meter="10.0"/>
		<width meter="2.4"/>
		<costInformation>

		</costInformation>
		<passengerCarEquivalents pce="2"/>
		<networkMode networkMode="tram"/>
		<flowEfficiencyFactor factor="1.0"/>
	</vehicleType>

	<vehicle id="veh_0_tram" type="Tram"/>
	<vehicle id="veh_1000_tram" type="Tram"/>
	<vehicle id="veh_1001_tram" type="Tram"/>
	<vehicle id="veh_1002_tram" type="Tram"/>
	<vehicle id="veh_1003_tram" type="Tram"/>
	<vehicle id="veh_1004_tram" type="Tram"/>
	<vehicle id="veh_1005_tram" type="Tram"/>
	<vehicle id="veh_1006_tram" type="Tram"/>
	<vehicle id="veh_1007_tram" type="Tram"/>
	<vehicle id="veh_1008_tram" type="Tram"/>
	<vehicle id="veh_1009_tram" type="Tram"/>
	<vehicle id="veh_100_tram" type="Tram"/>
	<vehicle id="veh_1010_tram" type="Tram"/>
	<vehicle id="veh_1011_tram" type="Tram"/>
	<vehicle id="veh_1012_tram" type="Tram"/>
	<vehicle id="veh_1013_tram" type="Tram"/>
	<vehicle id="veh_1014_tram" type="Tram"/>
	<vehicle id="veh_1015_tram" type="Tram"/>
	<vehicle id="veh_1016_tram" type="Tram"/>
	<vehicle id="veh_1017_tram" type="Tram"/>
	<vehicle id="veh_1018_tram" type="Tram"/>
	<vehicle id="veh_1019_tram" type="Tram"/>
	<vehicle id="veh_101_tram" type="Tram"/>
	<vehicle id="veh_1020_tram" type="Tram"/>
	<vehicle id="veh_1021_tram" type="Tram"/>
	<vehicle id="veh_1022_tram" type="Tram"/>
	<vehicle id="veh_1023_tram" type="Tram"/>
	<vehicle id="veh_1024_tram" type="Tram"/>
	<vehicle id="veh_1025_tram" type="Tram"/>
	<vehicle id="veh_1026_tram" type="Tram"/>
	<vehicle id="veh_1027_tram" type="Tram"/>
	<vehicle id="veh_1028_tram" type="Tram"/>
	<vehicle id="veh_1029_tram" type="Tram"/>
	<vehicle id="veh_102_tram" type="Tram"/>
	<vehicle id="veh_1030_tram" type="Tram"/>
	<vehicle id="veh_1031_tram" type="Tram"/>
	<vehicle id="veh_1032_tram" type="Tram"/>
	<vehicle id="veh_1033_tram" type="Tram"/>
	<vehicle id="veh_1034_tram" type="Tram"/>
	<vehicle id="veh_1035_tram" type="Tram"/>
	<vehicle id="veh_1036_tram" type="Tram"/>
	<vehicle id="veh_1037_tram" type="Tram"/>
	<vehicle id="veh_1038_tram" type="Tram"/>
	<vehicle id="veh_1039_tram" type="Tram"/>
	<vehicle id="veh_103_tram" type="Tram"/>
	<vehicle id="veh_1040_tram" type="Tram"/>
	<vehicle id="veh_1041_tram" type="Tram"/>
	<vehicle id="veh_1042_tram" type="Tram"/>
	<vehicle id="veh_1043_tram" type="Tram"/>
	<vehicle id="veh_1044_tram" type="Tram"/>
	<vehicle id="veh_1045_tram" type="Tram"/>
	<vehicle id="veh_1046_tram" type="Tram"/>
	<vehicle id="veh_1047_tram" type="Tram"/>
	<vehicle id="veh_1048_tram" type="Tram"/>
	<vehicle id="veh_1049_tram" type="Tram"/>
	<vehicle id="veh_104_tram" type="Tram"/>
	<vehicle id="veh_1050_tram" type="Tram"/>
	<vehicle id="veh_1051_tram" type="Tram"/>
	<vehicle id="veh_1052_tram" type="Tram"/>
	<vehicle id="veh_1053_tram" type="Tram"/>
	<vehicle id="veh_1054_tram" type="Tram"/>
	<vehicle id="veh_1055_tram" type="Tram"/>
	<vehicle id="veh_1056_tram" type="Tram"/>
	<vehicle id="veh_1057_tram" type="Tram"/>
	<vehicle id="veh_1058_tram" type="Tram"/>
	<vehicle id="veh_1059_tram" type="Tram"/>
	<vehicle id="veh_105_tram" type="Tram"/>
	<vehicle id="veh_1060_tram" type="Tram"/>
	<vehicle id="veh_1061_tram" type="Tram"/>
	<vehicle id="veh_1062_tram" type="Tram"/>
	<vehicle id="veh_1063_tram" type="Tram"/>
	<vehicle id="veh_1064_tram" type="Tram"/>
	<vehicle id="veh_1065_tram" type="Tram"/>
	<vehicle id="veh_1066_tram" type="Tram"/>
	<vehicle id="veh_1067_tram" type="Tram"/>
	<vehicle id="veh_1068_tram" type="Tram"/>
	<vehicle id="veh_1069_tram" type="Tram"/>
	<vehicle id="veh_106_tram" type="Tram"/>
	<vehicle id="veh_1070_tram" type="Tram"/>
	<vehicle id="veh_1071_tram" type="Tram"/>
	<vehicle id="veh_1072_tram" type="Tram"/>
	<vehicle id="veh_1073_tram" type="Tram"/>
	<vehicle id="veh_1074_tram" type="Tram"/>
	<vehicle id="veh_1075_tram" type="Tram"/>
	<vehicle id="veh_1076_tram" type="Tram"/>
	<vehicle id="veh_1077_tram" type="Tram"/>
	<vehicle id="veh_1078_tram" type="Tram"/>
	<vehicle id="veh_1079_tram" type="Tram"/>
	<vehicle id="veh_107_tram" type="Tram"/>
	<vehicle id="veh_1080_tram" type="Tram"/>
	<vehicle id="veh_1081_tram" type="Tram"/>
	<vehicle id="veh_1082_tram" type="Tram"/>
	<vehicle id="veh_1083_tram" type="Tram"/>
	<vehicle id="veh_1084_tram" type="Tram"/>
	<vehicle id="veh_1085_tram" type="Tram"/>
	<vehicle id="veh_1086_tram" type="Tram"/>
	<vehicle id="veh_1087_tram" type="Tram"/>
	<vehicle id="veh_1088_tram" type="Tram"/>
	<vehicle id="veh_1089_tram" type="Tram"/>
	<vehicle id="veh_108_tram" type="Tram"/>
	<vehicle id="veh_1090_tram" type="Tram"/>
	<vehicle id="veh_1091_tram" type="Tram"/>
	<vehicle id="veh_1092_tram" type="Tram"/>
	<vehicle id="veh_1093_tram" type="Tram"/>
	<vehicle id="veh_1094_tram" type="Tram"/>
	<vehicle id="veh_1095_tram" type="Tram"/>
	<vehicle id="veh_1096_tram" type="Tram"/>
	<vehicle id="veh_1097_tram" type="Tram"/>
	<vehicle id="veh_1098_tram" type="Tram"/>
	<vehicle id="veh_1099_tram" type="Tram"/>
	<vehicle id="veh_109_tram" type="Tram"/>
	<vehicle id="veh_10_tram" type="Tram"/>
	<vehicle id="veh_1100_tram" type="Tram"/>
	<vehicle id="veh_1101_tram" type="Tram"/>
	<vehicle id="veh_1102_tram" type="Tram"/>
	<vehicle id="veh_1103_tram" type="Tram"/>
	<vehicle id="veh_1104_tram" type="Tram"/>
	<vehicle id="veh_1105_tram" type="Tram"/>
	<vehicle id="veh_1106_tram" type="Tram"/>
	<vehicle id="veh_1107_tram" type="Tram"/>
	<vehicle id="veh_1108_tram" type="Tram"/>
	<vehicle id="veh_1109_tram" type="Tram"/>
	<vehicle id="veh_110_tram" type="Tram"/>
	<vehicle id="veh_1110_tram" type="Tram"/>
	<vehicle id="veh_1111_tram" type="Tram"/>
	<vehicle id="veh_1112_tram" type="Tram"/>
	<vehicle id="veh_1113_tram" type="Tram"/>
	<vehicle id="veh_1114_tram" type="Tram"/>
	<vehicle id="veh_1115_tram" type="Tram"/>
	<vehicle id="veh_1116_tram" type="Tram"/>
	<vehicle id="veh_1117_tram" type="Tram"/>
	<vehicle id="veh_1118_tram" type="Tram"/>
	<vehicle id="veh_1119_tram" type="Tram"/>
	<vehicle id="veh_111_tram" type="Tram"/>
	<vehicle id="veh_1120_tram" type="Tram"/>
	<vehicle id="veh_1121_tram" type="Tram"/>
	<vehicle id="veh_1122_tram" type="Tram"/>
	<vehicle id="veh_1123_tram" type="Tram"/>
	<vehicle id="veh_1124_tram" type="Tram"/>
	<vehicle id="veh_1125_tram" type="Tram"/>
	<vehicle id="veh_1126_tram" type="Tram"/>
	<vehicle id="veh_1127_tram" type="Tram"/>
	<vehicle id="veh_1128_tram" type="Tram"/>
	<vehicle id="veh_1129_tram" type="Tram"/>
	<vehicle id="veh_112_tram" type="Tram"/>
	<vehicle id="veh_1130_tram" type="Tram"/>
	<vehicle id="veh_1131_tram" type="Tram"/>
	<vehicle id="veh_1132_tram" type="Tram"/>
	<vehicle id="veh_1133_tram" type="Tram"/>
	<vehicle id="veh_1134_tram" type="Tram"/>
	<vehicle id="veh_1135_tram" type="Tram"/>
	<vehicle id="veh_1136_tram" type="Tram"/>
	<vehicle id="veh_1137_tram" type="Tram"/>
	<vehicle id="veh_1138_tram" type="Tram"/>
	<vehicle id="veh_1139_tram" type="Tram"/>
	<vehicle id="veh_113_tram" type="Tram"/>
	<vehicle id="veh_1140_tram" type="Tram"/>
	<vehicle id="veh_1141_tram" type="Tram"/>
	<vehicle id="veh_1142_tram" type="Tram"/>
	<vehicle id="veh_1143_tram" type="Tram"/>
	<vehicle id="veh_1144_tram" type="Tram"/>
	<vehicle id="veh_1145_tram" type="Tram"/>
	<vehicle id="veh_1146_tram" type="Tram"/>
	<vehicle id="veh_1147_tram" type="Tram"/>
	<vehicle id="veh_1148_tram" type="Tram"/>
	<vehicle id="veh_1149_tram" type="Tram"/>
	<vehicle id="veh_114_tram" type="Tram"/>
	<vehicle id="veh_1150_tram" type="Tram"/>
	<vehicle id="veh_1151_tram" type="Tram"/>
	<vehicle id="veh_1152_tram" type="Tram"/>
	<vehicle id="veh_1153_tram" type="Tram"/>
	<vehicle id="veh_1154_tram" type="Tram"/>
	<vehicle id="veh_1155_tram" type="Tram"/>
	<vehicle id="veh_1156_tram" type="Tram"/>
	<vehicle id="veh_1157_tram" type="Tram"/>
	<vehicle id="veh_1158_tram" type="Tram"/>
	<vehicle id="veh_1159_tram" type="Tram"/>
	<vehicle id="veh_115_tram" type="Tram"/>
	<vehicle id="veh_1160_tram" type="Tram"/>
	<vehicle id="veh_1161_tram" type="Tram"/>
	<vehicle id="veh_1162_tram" type="Tram"/>
	<vehicle id="veh_1163_tram" type="Tram"/>
	<vehicle id="veh_1164_tram" type="Tram"/>
	<vehicle id="veh_1165_tram" type="Tram"/>
	<vehicle id="veh_1166_tram" type="Tram"/>
	<vehicle id="veh_1167_tram" type="Tram"/>
	<vehicle id="veh_1168_tram" type="Tram"/>
	<vehicle id="veh_1169_tram" type="Tram"/>
	<vehicle id="veh_116_tram" type="Tram"/>
	<vehicle id="veh_1170_tram" type="Tram"/>
	<vehicle id="veh_1171_tram" type="Tram"/>
	<vehicle id="veh_1172_tram" type="Tram"/>
	<vehicle id="veh_1173_tram" type="Tram"/>
	<vehicle id="veh_1174_tram" type="Tram"/>
	<vehicle id="veh_1175_tram" type="Tram"/>
	<vehicle id="veh_1176_tram" type="Tram"/>
	<vehicle id="veh_1177_tram" type="Tram"/>
	<vehicle id="veh_1178_tram" type="Tram"/>
	<vehicle id="veh_1179_tram" type="Tram"/>
	<vehicle id="veh_117_tram" type="Tram"/>
	<vehicle id="veh_1180_tram" type="Tram"/>
	<vehicle id="veh_1181_tram" type="Tram"/>
	<vehicle id="veh_1182_tram" type="Tram"/>
	<vehicle id="veh_1183_tram" type="Tram"/>
	<vehicle id="veh_1184_tram" type="Tram"/>
	<vehicle id="veh_1185_tram" type="Tram"/>
	<vehicle id="veh_1186_tram" type="Tram"/>
	<vehicle id="veh_1187_tram" type="Tram"/>
	<vehicle id="veh_1188_tram" type="Tram"/>
	<vehicle id="veh_1189_tram" type="Tram"/>
	<vehicle id="veh_118_tram" type="Tram"/>
	<vehicle id="veh_1190_tram" type="Tram"/>
	<vehicle id="veh_1191_tram" type="Tram"/>
	<vehicle id="veh_1192_tram" type="Tram"/>
	<vehicle id="veh_1193_tram" type="Tram"/>
	<vehicle id="veh_1194_tram" type="Tram"/>
	<vehicle id="veh_1195_tram" type="Tram"/>
	<vehicle id="veh_1196_tram" type="Tram"/>
	<vehicle id="veh_1197_tram" type="Tram"/>
	<vehicle id="veh_1198_tram" type="Tram"/>
	<vehicle id="veh_1199_tram" type="Tram"/>
	<vehicle id="veh_119_tram" type="Tram"/>
	<vehicle id="veh_11_tram" type="Tram"/>
	<vehicle id="veh_1200_tram" type="Tram"/>
	<vehicle id="veh_1201_tram" type="Tram"/>
	<vehicle id="veh_1202_tram" type="Tram"/>
	<vehicle id="veh_1203_tram" type="Tram"/>
	<vehicle id="veh_1204_tram" type="Tram"/>
	<vehicle id="veh_1205_tram" type="Tram"/>
	<vehicle id="veh_1206_tram" type="Tram"/>
	<vehicle id="veh_1207_tram" type="Tram"/>
	<vehicle id="veh_1208_tram" type="Tram"/>
	<vehicle id="veh_1209_tram" type="Tram"/>
	<vehicle id="veh_120_tram" type="Tram"/>
	<vehicle id="veh_1210_tram" type="Tram"/>
	<vehicle id="veh_1211_tram" type="Tram"/>
	<vehicle id="veh_1212_tram" type="Tram"/>
	<vehicle id="veh_1213_tram" type="Tram"/>
	<vehicle id="veh_1214_tram" type="Tram"/>
	<vehicle id="veh_1215_tram" type="Tram"/>
	<vehicle id="veh_1216_tram" type="Tram"/>
	<vehicle id="veh_1217_tram" type="Tram"/>
	<vehicle id="veh_1218_tram" type="Tram"/>
	<vehicle id="veh_1219_tram" type="Tram"/>
	<vehicle id="veh_121_tram" type="Tram"/>
	<vehicle id="veh_1220_tram" type="Tram"/>
	<vehicle id="veh_1221_tram" type="Tram"/>
	<vehicle id="veh_1222_tram" type="Tram"/>
	<vehicle id="veh_1223_tram" type="Tram"/>
	<vehicle id="veh_1224_tram" type="Tram"/>
	<vehicle id="veh_1225_tram" type="Tram"/>
	<vehicle id="veh_1226_tram" type="Tram"/>
	<vehicle id="veh_1227_tram" type="Tram"/>
	<vehicle id="veh_1228_tram" type="Tram"/>
	<vehicle id="veh_1229_tram" type="Tram"/>
	<vehicle id="veh_122_tram" type="Tram"/>
	<vehicle id="veh_1230_tram" type="Tram"/>
	<vehicle id="veh_1231_tram" type="Tram"/>
	<vehicle id="veh_1232_tram" type="Tram"/>
	<vehicle id="veh_1233_tram" type="Tram"/>
	<vehicle id="veh_1234_tram" type="Tram"/>
	<vehicle id="veh_1235_tram" type="Tram"/>
	<vehicle id="veh_1236_tram" type="Tram"/>
	<vehicle id="veh_1237_tram" type="Tram"/>
	<vehicle id="veh_1238_tram" type="Tram"/>
	<vehicle id="veh_1239_tram" type="Tram"/>
	<vehicle id="veh_123_tram" type="Tram"/>
	<vehicle id="veh_1240_tram" type="Tram"/>
	<vehicle id="veh_1241_tram" type="Tram"/>
	<vehicle id="veh_1242_tram" type="Tram"/>
	<vehicle id="veh_1243_tram" type="Tram"/>
	<vehicle id="veh_1244_tram" type="Tram"/>
	<vehicle id="veh_1245_tram" type="Tram"/>
	<vehicle id="veh_1246_tram" type="Tram"/>
	<vehicle id="veh_1247_tram" type="Tram"/>
	<vehicle id="veh_1248_tram" type="Tram"/>
	<vehicle id="veh_1249_tram" type="Tram"/>
	<vehicle id="veh_124_tram" type="Tram"/>
	<vehicle id="veh_1250_tram" type="Tram"/>
	<vehicle id="veh_1251_tram" type="Tram"/>
	<vehicle id="veh_1252_tram" type="Tram"/>
	<vehicle id="veh_1253_tram" type="Tram"/>
	<vehicle id="veh_1254_tram" type="Tram"/>
	<vehicle id="veh_1255_tram" type="Tram"/>
	<vehicle id="veh_1256_tram" type="Tram"/>
	<vehicle id="veh_1257_tram" type="Tram"/>
	<vehicle id="veh_1258_tram" type="Tram"/>
	<vehicle id="veh_1259_tram" type="Tram"/>
	<vehicle id="veh_125_tram" type="Tram"/>
	<vehicle id="veh_1260_tram" type="Tram"/>
	<vehicle id="veh_1261_tram" type="Tram"/>
	<vehicle id="veh_1262_tram" type="Tram"/>
	<vehicle id="veh_1263_tram" type="Tram"/>
	<vehicle id="veh_1264_tram" type="Tram"/>
	<vehicle id="veh_1265_tram" type="Tram"/>
	<vehicle id="veh_1266_tram" type="Tram"/>
	<vehicle id="veh_1267_tram" type="Tram"/>
	<vehicle id="veh_1268_tram" type="Tram"/>
	<vehicle id="veh_1269_tram" type="Tram"/>
	<vehicle id="veh_126_tram" type="Tram"/>
	<vehicle id="veh_1270_tram" type="Tram"/>
	<vehicle id="veh_1271_tram" type="Tram"/>
	<vehicle id="veh_1272_tram" type="Tram"/>
	<vehicle id="veh_1273_tram" type="Tram"/>
	<vehicle id="veh_1274_tram" type="Tram"/>
	<vehicle id="veh_1275_tram" type="Tram"/>
	<vehicle id="veh_1276_tram" type="Tram"/>
	<vehicle id="veh_1277_tram" type="Tram"/>
	<vehicle id="veh_1278_tram" type="Tram"/>
	<vehicle id="veh_1279_tram" type="Tram"/>
	<vehicle id="veh_127_tram" type="Tram"/>
	<vehicle id="veh_1280_tram" type="Tram"/>
	<vehicle id="veh_1281_tram" type="Tram"/>
	<vehicle id="veh_1282_tram" type="Tram"/>
	<vehicle id="veh_1283_tram" type="Tram"/>
	<vehicle id="veh_1284_tram" type="Tram"/>
	<vehicle id="veh_1285_tram" type="Tram"/>
	<vehicle id="veh_1286_tram" type="Tram"/>
	<vehicle id="veh_1287_tram" type="Tram"/>
	<vehicle id="veh_1288_tram" type="Tram"/>
	<vehicle id="veh_1289_tram" type="Tram"/>
	<vehicle id="veh_128_tram" type="Tram"/>
	<vehicle id="veh_1290_tram" type="Tram"/>
	<vehicle id="veh_1291_tram" type="Tram"/>
	<vehicle id="veh_1292_tram" type="Tram"/>
	<vehicle id="veh_1293_tram" type="Tram"/>
	<vehicle id="veh_1294_tram" type="Tram"/>
	<vehicle id="veh_1295_tram" type="Tram"/>
	<vehicle id="veh_1296_tram" type="Tram"/>
	<vehicle id="veh_1297_tram" type="Tram"/>
	<vehicle id="veh_1298_tram" type="Tram"/>
	<vehicle id="veh_1299_tram" type="Tram"/>
	<vehicle id="veh_129_tram" type="Tram"/>
	<vehicle id="veh_12_tram" type="Tram"/>
	<vehicle id="veh_1300_tram" type="Tram"/>
	<vehicle id="veh_1301_tram" type="Tram"/>
	<vehicle id="veh_1302_tram" type="Tram"/>
	<vehicle id="veh_1303_tram" type="Tram"/>
	<vehicle id="veh_1304_tram" type="Tram"/>
	<vehicle id="veh_1305_tram" type="Tram"/>
	<vehicle id="veh_1306_tram" type="Tram"/>
	<vehicle id="veh_1307_tram" type="Tram"/>
	<vehicle id="veh_1308_tram" type="Tram"/>
	<vehicle id="veh_1309_tram" type="Tram"/>
	<vehicle id="veh_130_tram" type="Tram"/>
	<vehicle id="veh_1310_tram" type="Tram"/>
	<vehicle id="veh_1311_tram" type="Tram"/>
	<vehicle id="veh_1312_tram" type="Tram"/>
	<vehicle id="veh_1313_tram" type="Tram"/>
	<vehicle id="veh_1314_tram" type="Tram"/>
	<vehicle id="veh_1315_tram" type="Tram"/>
	<vehicle id="veh_1316_tram" type="Tram"/>
	<vehicle id="veh_1317_tram" type="Tram"/>
	<vehicle id="veh_1318_tram" type="Tram"/>
	<vehicle id="veh_1319_tram" type="Tram"/>
	<vehicle id="veh_131_tram" type="Tram"/>
	<vehicle id="veh_1320_tram" type="Tram"/>
	<vehicle id="veh_1321_tram" type="Tram"/>
	<vehicle id="veh_1322_tram" type="Tram"/>
	<vehicle id="veh_1323_tram" type="Tram"/>
	<vehicle id="veh_1324_tram" type="Tram"/>
	<vehicle id="veh_1325_tram" type="Tram"/>
	<vehicle id="veh_1326_tram" type="Tram"/>
	<vehicle id="veh_1327_tram" type="Tram"/>
	<vehicle id="veh_1328_tram" type="Tram"/>
	<vehicle id="veh_1329_tram" type="Tram"/>
	<vehicle id="veh_132_tram" type="Tram"/>
	<vehicle id="veh_1330_tram" type="Tram"/>
	<vehicle id="veh_1331_tram" type="Tram"/>
	<vehicle id="veh_1332_tram" type="Tram"/>
	<vehicle id="veh_1333_tram" type="Tram"/>
	<vehicle id="veh_1334_tram" type="Tram"/>
	<vehicle id="veh_1335_tram" type="Tram"/>
	<vehicle id="veh_1336_tram" type="Tram"/>
	<vehicle id="veh_1337_tram" type="Tram"/>
	<vehicle id="veh_1338_tram" type="Tram"/>
	<vehicle id="veh_1339_tram" type="Tram"/>
	<vehicle id="veh_133_tram" type="Tram"/>
	<vehicle id="veh_1340_tram" type="Tram"/>
	<vehicle id="veh_1341_tram" type="Tram"/>
	<vehicle id="veh_1342_tram" type="Tram"/>
	<vehicle id="veh_1343_tram" type="Tram"/>
	<vehicle id="veh_1344_tram" type="Tram"/>
	<vehicle id="veh_1345_tram" type="Tram"/>
	<vehicle id="veh_1346_tram" type="Tram"/>
	<vehicle id="veh_1347_tram" type="Tram"/>
	<vehicle id="veh_1348_tram" type="Tram"/>
	<vehicle id="veh_1349_tram" type="Tram"/>
	<vehicle id="veh_134_tram" type="Tram"/>
	<vehicle id="veh_1350_tram" type="Tram"/>
	<vehicle id="veh_1351_tram" type="Tram"/>
	<vehicle id="veh_1352_tram" type="Tram"/>
	<vehicle id="veh_1353_tram" type="Tram"/>
	<vehicle id="veh_1354_tram" type="Tram"/>
	<vehicle id="veh_1355_tram" type="Tram"/>
	<vehicle id="veh_1356_tram" type="Tram"/>
	<vehicle id="veh_1357_tram" type="Tram"/>
	<vehicle id="veh_1358_tram" type="Tram"/>
	<vehicle id="veh_1359_tram" type="Tram"/>
	<vehicle id="veh_135_tram" type="Tram"/>
	<vehicle id="veh_1360_tram" type="Tram"/>
	<vehicle id="veh_1361_tram" type="Tram"/>
	<vehicle id="veh_1362_tram" type="Tram"/>
	<vehicle id="veh_1363_tram" type="Tram"/>
	<vehicle id="veh_1364_tram" type="Tram"/>
	<vehicle id="veh_1365_tram" type="Tram"/>
	<vehicle id="veh_1366_tram" type="Tram"/>
	<vehicle id="veh_1367_tram" type="Tram"/>
	<vehicle id="veh_1368_tram" type="Tram"/>
	<vehicle id="veh_1369_tram" type="Tram"/>
	<vehicle id="veh_136_tram" type="Tram"/>
	<vehicle id="veh_1370_tram" type="Tram"/>
	<vehicle id="veh_1371_tram" type="Tram"/>
	<vehicle id="veh_1372_tram" type="Tram"/>
	<vehicle id="veh_1373_tram" type="Tram"/>
	<vehicle id="veh_1374_tram" type="Tram"/>
	<vehicle id="veh_1375_tram" type="Tram"/>
	<vehicle id="veh_1376_tram" type="Tram"/>
	<vehicle id="veh_1377_tram" type="Tram"/>
	<vehicle id="veh_1378_tram" type="Tram"/>
	<vehicle id="veh_1379_tram" type="Tram"/>
	<vehicle id="veh_137_tram" type="Tram"/>
	<vehicle id="veh_1380_tram" type="Tram"/>
	<vehicle id="veh_1381_tram" type="Tram"/>
	<vehicle id="veh_1382_tram" type="Tram"/>
	<vehicle id="veh_1383_tram" type="Tram"/>
	<vehicle id="veh_1384_tram" type="Tram"/>
	<vehicle id="veh_1385_tram" type="Tram"/>
	<vehicle id="veh_1386_tram" type="Tram"/>
	<vehicle id="veh_1387_tram" type="Tram"/>
	<vehicle id="veh_1388_tram" type="Tram"/>
	<vehicle id="veh_1389_tram" type="Tram"/>
	<vehicle id="veh_138_tram" type="Tram"/>
	<vehicle id="veh_1390_tram" type="Tram"/>
	<vehicle id="veh_1391_tram" type="Tram"/>
	<vehicle id="veh_1392_tram" type="Tram"/>
	<vehicle id="veh_1393_tram" type="Tram"/>
	<vehicle id="veh_1394_tram" type="Tram"/>
	<vehicle id="veh_1395_tram" type="Tram"/>
	<vehicle id="veh_1396_tram" type="Tram"/>
	<vehicle id="veh_1397_tram" type="Tram"/>
	<vehicle id="veh_1398_tram" type="Tram"/>
	<vehicle id="veh_1399_tram" type="Tram"/>
	<vehicle id="veh_139_tram" type="Tram"/>
	<vehicle id="veh_13_tram" type="Tram"/>
	<vehicle id="veh_1400_tram" type="Tram"/>
	<vehicle id="veh_1401_tram" type="Tram"/>
	<vehicle id="veh_1402_tram" type="Tram"/>
	<vehicle id="veh_1403_tram" type="Tram"/>
	<vehicle id="veh_1404_tram" type="Tram"/>
	<vehicle id="veh_1405_tram" type="Tram"/>
	<vehicle id="veh_1406_tram" type="Tram"/>
	<vehicle id="veh_1407_tram" type="Tram"/>
	<vehicle id="veh_1408_tram" type="Tram"/>
	<vehicle id="veh_1409_tram" type="Tram"/>
	<vehicle id="veh_140_tram" type="Tram"/>
	<vehicle id="veh_1410_tram" type="Tram"/>
	<vehicle id="veh_1411_tram" type="Tram"/>
	<vehicle id="veh_1412_tram" type="Tram"/>
	<vehicle id="veh_1413_tram" type="Tram"/>
	<vehicle id="veh_1414_tram" type="Tram"/>
	<vehicle id="veh_1415_tram" type="Tram"/>
	<vehicle id="veh_1416_tram" type="Tram"/>
	<vehicle id="veh_1417_tram" type="Tram"/>
	<vehicle id="veh_1418_tram" type="Tram"/>
	<vehicle id="veh_1419_tram" type="Tram"/>
	<vehicle id="veh_141_tram" type="Tram"/>
	<vehicle id="veh_1420_tram" type="Tram"/>
	<vehicle id="veh_1421_tram" type="Tram"/>
	<vehicle id="veh_1422_tram" type="Tram"/>
	<vehicle id="veh_1423_tram" type="Tram"/>
	<vehicle id="veh_1424_tram" type="Tram"/>
	<vehicle id="veh_1425_tram" type="Tram"/>
	<vehicle id="veh_1426_tram" type="Tram"/>
	<vehicle id="veh_1427_tram" type="Tram"/>
	<vehicle id="veh_1428_tram" type="Tram"/>
	<vehicle id="veh_1429_tram" type="Tram"/>
	<vehicle id="veh_142_tram" type="Tram"/>
	<vehicle id="veh_1430_tram" type="Tram"/>
	<vehicle id="veh_1431_tram" type="Tram"/>
	<vehicle id="veh_1432_tram" type="Tram"/>
	<vehicle id="veh_1433_tram" type="Tram"/>
	<vehicle id="veh_1434_tram" type="Tram"/>
	<vehicle id="veh_1435_tram" type="Tram"/>
	<vehicle id="veh_1436_tram" type="Tram"/>
	<vehicle id="veh_1437_tram" type="Tram"/>
	<vehicle id="veh_1438_tram" type="Tram"/>
	<vehicle id="veh_1439_tram" type="Tram"/>
	<vehicle id="veh_143_tram" type="Tram"/>
	<vehicle id="veh_1440_tram" type="Tram"/>
	<vehicle id="veh_1441_tram" type="Tram"/>
	<vehicle id="veh_1442_tram" type="Tram"/>
	<vehicle id="veh_1443_tram" type="Tram"/>
	<vehicle id="veh_1444_tram" type="Tram"/>
	<vehicle id="veh_1445_tram" type="Tram"/>
	<vehicle id="veh_1446_tram" type="Tram"/>
	<vehicle id="veh_1447_tram" type="Tram"/>
	<vehicle id="veh_1448_tram" type="Tram"/>
	<vehicle id="veh_1449_tram" type="Tram"/>
	<vehicle id="veh_144_tram" type="Tram"/>
	<vehicle id="veh_1450_tram" type="Tram"/>
	<vehicle id="veh_1451_tram" type="Tram"/>
	<vehicle id="veh_1452_tram" type="Tram"/>
	<vehicle id="veh_1453_tram" type="Tram"/>
	<vehicle id="veh_1454_tram" type="Tram"/>
	<vehicle id="veh_1455_tram" type="Tram"/>
	<vehicle id="veh_1456_tram" type="Tram"/>
	<vehicle id="veh_1457_tram" type="Tram"/>
	<vehicle id="veh_1458_tram" type="Tram"/>
	<vehicle id="veh_1459_tram" type="Tram"/>
	<vehicle id="veh_145_tram" type="Tram"/>
	<vehicle id="veh_1460_tram" type="Tram"/>
	<vehicle id="veh_1461_tram" type="Tram"/>
	<vehicle id="veh_1462_tram" type="Tram"/>
	<vehicle id="veh_1463_tram" type="Tram"/>
	<vehicle id="veh_1464_tram" type="Tram"/>
	<vehicle id="veh_1465_tram" type="Tram"/>
	<vehicle id="veh_1466_tram" type="Tram"/>
	<vehicle id="veh_1467_tram" type="Tram"/>
	<vehicle id="veh_1468_tram" type="Tram"/>
	<vehicle id="veh_1469_tram" type="Tram"/>
	<vehicle id="veh_146_tram" type="Tram"/>
	<vehicle id="veh_1470_tram" type="Tram"/>
	<vehicle id="veh_1471_tram" type="Tram"/>
	<vehicle id="veh_1472_tram" type="Tram"/>
	<vehicle id="veh_1473_tram" type="Tram"/>
	<vehicle id="veh_1474_tram" type="Tram"/>
	<vehicle id="veh_1475_tram" type="Tram"/>
	<vehicle id="veh_1476_tram" type="Tram"/>
	<vehicle id="veh_1477_tram" type="Tram"/>
	<vehicle id="veh_1478_tram" type="Tram"/>
	<vehicle id="veh_1479_tram" type="Tram"/>
	<vehicle id="veh_147_tram" type="Tram"/>
	<vehicle id="veh_1480_tram" type="Tram"/>
	<vehicle id="veh_1481_tram" type="Tram"/>
	<vehicle id="veh_1482_tram" type="Tram"/>
	<vehicle id="veh_1483_tram" type="Tram"/>
	<vehicle id="veh_1484_tram" type="Tram"/>
	<vehicle id="veh_1485_tram" type="Tram"/>
	<vehicle id="veh_1486_tram" type="Tram"/>
	<vehicle id="veh_1487_tram" type="Tram"/>
	<vehicle id="veh_1488_tram" type="Tram"/>
	<vehicle id="veh_1489_tram" type="Tram"/>
	<vehicle id="veh_148_tram" type="Tram"/>
	<vehicle id="veh_1490_tram" type="Tram"/>
	<vehicle id="veh_1491_tram" type="Tram"/>
	<vehicle id="veh_1492_tram" type="Tram"/>
	<vehicle id="veh_1493_tram" type="Tram"/>
	<vehicle id="veh_1494_tram" type="Tram"/>
	<vehicle id="veh_1495_tram" type="Tram"/>
	<vehicle id="veh_1496_tram" type="Tram"/>
	<vehicle id="veh_1497_tram" type="Tram"/>
	<vehicle id="veh_1498_tram" type="Tram"/>
	<vehicle id="veh_1499_tram" type="Tram"/>
	<vehicle id="veh_149_tram" type="Tram"/>
	<vehicle id="veh_14_tram" type="Tram"/>
	<vehicle id="veh_1500_tram" type="Tram"/>
	<vehicle id="veh_1501_tram" type="Tram"/>
	<vehicle id="veh_1502_tram" type="Tram"/>
	<vehicle id="veh_1503_tram" type="Tram"/>
	<vehicle id="veh_1504_tram" type="Tram"/>
	<vehicle id="veh_1505_tram" type="Tram"/>
	<vehicle id="veh_1506_tram" type="Tram"/>
	<vehicle id="veh_1507_tram" type="Tram"/>
	<vehicle id="veh_1508_tram" type="Tram"/>
	<vehicle id="veh_1509_tram" type="Tram"/>
	<vehicle id="veh_150_tram" type="Tram"/>
	<vehicle id="veh_1510_tram" type="Tram"/>
	<vehicle id="veh_1511_tram" type="Tram"/>
	<vehicle id="veh_1512_tram" type="Tram"/>
	<vehicle id="veh_1513_tram" type="Tram"/>
	<vehicle id="veh_1514_tram" type="Tram"/>
	<vehicle id="veh_1515_tram" type="Tram"/>
	<vehicle id="veh_1516_tram" type="Tram"/>
	<vehicle id="veh_1517_tram" type="Tram"/>
	<vehicle id="veh_1518_tram" type="Tram"/>
	<vehicle id="veh_1519_tram" type="Tram"/>
	<vehicle id="veh_151_tram" type="Tram"/>
	<vehicle id="veh_1520_tram" type="Tram"/>
	<vehicle id="veh_1521_tram" type="Tram"/>
	<vehicle id="veh_1522_tram" type="Tram"/>
	<vehicle id="veh_1523_tram" type="Tram"/>
	<vehicle id="veh_1524_tram" type="Tram"/>
	<vehicle id="veh_1525_tram" type="Tram"/>
	<vehicle id="veh_1526_tram" type="Tram"/>
	<vehicle id="veh_1527_tram" type="Tram"/>
	<vehicle id="veh_1528_tram" type="Tram"/>
	<vehicle id="veh_1529_tram" type="Tram"/>
	<vehicle id="veh_152_tram" type="Tram"/>
	<vehicle id="veh_1530_tram" type="Tram"/>
	<vehicle id="veh_1531_tram" type="Tram"/>
	<vehicle id="veh_1532_tram" type="Tram"/>
	<vehicle id="veh_1533_tram" type="Tram"/>
	<vehicle id="veh_1534_tram" type="Tram"/>
	<vehicle id="veh_1535_tram" type="Tram"/>
	<vehicle id="veh_1536_tram" type="Tram"/>
	<vehicle id="veh_1537_tram" type="Tram"/>
	<vehicle id="veh_1538_tram" type="Tram"/>
	<vehicle id="veh_1539_tram" type="Tram"/>
	<vehicle id="veh_153_tram" type="Tram"/>
	<vehicle id="veh_1540_tram" type="Tram"/>
	<vehicle id="veh_1541_tram" type="Tram"/>
	<vehicle id="veh_1542_tram" type="Tram"/>
	<vehicle id="veh_1543_tram" type="Tram"/>
	<vehicle id="veh_1544_tram" type="Tram"/>
	<vehicle id="veh_1545_tram" type="Tram"/>
	<vehicle id="veh_1546_tram" type="Tram"/>
	<vehicle id="veh_1547_tram" type="Tram"/>
	<vehicle id="veh_1548_tram" type="Tram"/>
	<vehicle id="veh_1549_tram" type="Tram"/>
	<vehicle id="veh_154_tram" type="Tram"/>
	<vehicle id="veh_1550_tram" type="Tram"/>
	<vehicle id="veh_1551_tram" type="Tram"/>
	<vehicle id="veh_1552_tram" type="Tram"/>
	<vehicle id="veh_1553_tram" type="Tram"/>
	<vehicle id="veh_1554_tram" type="Tram"/>
	<vehicle id="veh_1555_tram" type="Tram"/>
	<vehicle id="veh_1556_tram" type="Tram"/>
	<vehicle id="veh_1557_tram" type="Tram"/>
	<vehicle id="veh_1558_tram" type="Tram"/>
	<vehicle id="veh_1559_tram" type="Tram"/>
	<vehicle id="veh_155_tram" type="Tram"/>
	<vehicle id="veh_1560_tram" type="Tram"/>
	<vehicle id="veh_1561_tram" type="Tram"/>
	<vehicle id="veh_1562_tram" type="Tram"/>
	<vehicle id="veh_1563_tram" type="Tram"/>
	<vehicle id="veh_1564_tram" type="Tram"/>
	<vehicle id="veh_1565_tram" type="Tram"/>
	<vehicle id="veh_1566_tram" type="Tram"/>
	<vehicle id="veh_1567_tram" type="Tram"/>
	<vehicle id="veh_1568_tram" type="Tram"/>
	<vehicle id="veh_1569_tram" type="Tram"/>
	<vehicle id="veh_156_tram" type="Tram"/>
	<vehicle id="veh_1570_tram" type="Tram"/>
	<vehicle id="veh_1571_tram" type="Tram"/>
	<vehicle id="veh_1572_tram" type="Tram"/>
	<vehicle id="veh_1573_tram" type="Tram"/>
	<vehicle id="veh_1574_tram" type="Tram"/>
	<vehicle id="veh_1575_tram" type="Tram"/>
	<vehicle id="veh_1576_tram" type="Tram"/>
	<vehicle id="veh_1577_tram" type="Tram"/>
	<vehicle id="veh_1578_tram" type="Tram"/>
	<vehicle id="veh_1579_tram" type="Tram"/>
	<vehicle id="veh_157_tram" type="Tram"/>
	<vehicle id="veh_1580_tram" type="Tram"/>
	<vehicle id="veh_1581_tram" type="Tram"/>
	<vehicle id="veh_1582_tram" type="Tram"/>
	<vehicle id="veh_1583_tram" type="Tram"/>
	<vehicle id="veh_1584_tram" type="Tram"/>
	<vehicle id="veh_1585_tram" type="Tram"/>
	<vehicle id="veh_1586_tram" type="Tram"/>
	<vehicle id="veh_1587_tram" type="Tram"/>
	<vehicle id="veh_1588_tram" type="Tram"/>
	<vehicle id="veh_1589_tram" type="Tram"/>
	<vehicle id="veh_158_tram" type="Tram"/>
	<vehicle id="veh_1590_tram" type="Tram"/>
	<vehicle id="veh_1591_tram" type="Tram"/>
	<vehicle id="veh_1592_tram" type="Tram"/>
	<vehicle id="veh_1593_tram" type="Tram"/>
	<vehicle id="veh_1594_tram" type="Tram"/>
	<vehicle id="veh_1595_tram" type="Tram"/>
	<vehicle id="veh_1596_tram" type="Tram"/>
	<vehicle id="veh_1597_tram" type="Tram"/>