<?xml version="1.0" encoding="UTF-8"?>
<!DOCTYPE network SYSTEM "http://www.matsim.org/files/dtd/network_v1.dtd">
<network>

	<!-- ====================================================================== -->

	<nodes>
		<node id="10062245202" x="461712.9578847825" y="5481065.618632618"/>
		<node id="10062394003" x="461688.52211629413" y="5481013.691440303"/>
		<node id="10144746834" x="461709.8000134324" y="5481073.9458736805"/>
		<node id="10149099126" x="462038.5988205302" y="5481415.671608397"/>
		<node id="1019984279" x="461109.6780392917" y="5481282.824889832"/>
		<node id="1019984288" x="461223.1752009829" y="5481208.005340523"/>
		<node id="1019984321" x="460725.56537097425" y="5481805.417458029"/>
		<node id="1019984375" x="461101.83891109796" y="5481239.909872771"/>
		<node id="1019984388" x="461152.2978783396" y="5481202.205380082"/>
		<node id="1019984405" x="461019.6506374449" y="5481245.743795067"/>
		<node id="1019984408" x="461167.39731051715" y="5481261.767967451"/>
		<node id="1019984462" x="460722.53047995473" y="5481800.369503978"/>
		<node id="1019984500" x="461159.166239404" y="5481248.207040934"/>
		<node id="10294109706" x="462045.20008750167" y="5480908.637292195"/>
		<node id="10294114224" x="462003.49332306004" y="5480931.152116712"/>
		<node id="10567038985" x="461682.76906113327" y="5482377.480742615"/>
		<node id="10690806824" x="461806.6911050617" y="5481825.139687686"/>
		<node id="10690806826" x="461857.25682941056" y="5481797.63607236"/>
		<node id="10808922633" x="461753.6027353173" y="5481833.660892226"/>
		<node id="10856582160" x="461796.84160681133" y="5482025.9875459215"/>
		<node id="10870545821" x="461681.4523323374" y="5481193.30676129"/>
		<node id="10870545822" x="461667.5255064769" y="5481169.979050028"/>
		<node id="10870545823" x="461677.94162182783" y="5481163.735468679"/>
		<node id="10870545824" x="461663.14697074366" y="5481172.600274889"/>
		<node id="10870545825" x="461652.9689047428" y="5481178.697679675"/>
		<node id="10870545826" x="461646.07291781757" y="5481182.826405652"/>
		<node id="10870545827" x="461661.22865391703" y="5481118.113642666"/>
		<node id="10870545828" x="461695.10975693265" y="5481149.3506727945"/>
		<node id="10870545831" x="461675.6020095384" y="5481142.083043199"/>
		<node id="10870545832" x="461671.6707590178" y="5481135.161935207"/>
		<node id="10870545833" x="461664.52559662267" y="5481123.415979385"/>
		<node id="1109568387" x="460662.56332720997" y="5481732.614873244"/>
		<node id="1109568394" x="460933.56806885044" y="5481557.606297812"/>
		<node id="1109568409" x="460997.8964429573" y="5481530.407593274"/>
		<node id="1109628966" x="461860.676993686" y="5480926.989218178"/>
		<node id="1120310798" x="461127.1638443885" y="5481425.199101163"/>
		<node id="1122278299" x="461210.2780986748" y="5481199.380497798"/>
		<node id="1122278302" x="461286.03416555317" y="5481292.533644958"/>
		<node id="1126992308" x="461405.75127230515" y="5481100.268376711"/>
		<node id="1126992319" x="461245.6324341984" y="5481194.993526076"/>
		<node id="1126992321" x="461345.6294228422" y="5481289.798796904"/>
		<node id="1126992374" x="461289.62124150863" y="5481202.853112572"/>
		<node id="1126992389" x="461303.2299282992" y="5481197.431136038"/>
		<node id="1184512491" x="460872.56574935804" y="5482360.793747926"/>
		<node id="1184512493" x="460817.06807191146" y="5482227.520555051"/>
		<node id="1184512506" x="460803.8598845732" y="5482249.962529876"/>
		<node id="1184512515" x="460847.3535572563" y="5482209.0697193425"/>
		<node id="1184515451" x="460851.2237614074" y="5482324.546567238"/>
		<node id="1184546797" x="460993.9670087901" y="5482452.092627079"/>
		<node id="1184546829" x="461004.5482095061" y="5482465.347451006"/>
		<node id="1185917081" x="460664.6768401776" y="5482034.908366991"/>
		<node id="1185917084" x="460627.08216007205" y="5481968.882981747"/>
		<node id="1185917092" x="460646.6985267939" y="5481998.448724294"/>
		<node id="1185917116" x="460705.02724323457" y="5482083.447829273"/>
		<node id="1186505425" x="460614.606560181" y="5481873.024897711"/>
		<node id="1186749340" x="460622.2275709165" y="5481940.500467922"/>
		<node id="1186749342" x="460657.9257023188" y="5482021.704405572"/>
		<node id="1199743113" x="461911.4513342414" y="5481357.976933047"/>
		<node id="1199799682" x="462065.77545249485" y="5481476.042033951"/>
		<node id="1204024595" x="460696.01729568304" y="5482194.03648684"/>
		<node id="1204024599" x="460716.293515309" y="5482283.234542622"/>
		<node id="1204025856" x="460697.0148730715" y="5482249.085515748"/>
		<node id="1204043045" x="460679.4777809002" y="5482168.195157965"/>
		<node id="1204043046" x="460605.8777343916" y="5482232.065056606"/>
		<node id="1204043070" x="460641.452628111" y="5482184.934982895"/>
		<node id="1230314950" x="461863.90243357274" y="5482338.188518075"/>
		<node id="1283057057" x="461226.3463876079" y="5482500.55632169"/>
		<node id="1283057085" x="461091.761222582" y="5482485.282042558"/>
		<node id="1283078703" x="460921.7461084297" y="5482428.383275417"/>
		<node id="1283078712" x="460931.95904818637" y="5482415.457771751"/>
		<node id="1283078835" x="460991.65809085243" y="5482470.509375394"/>
		<node id="1283078863" x="460784.7292633731" y="5482260.539743811"/>
		<node id="1283078889" x="460860.2651975453" y="5482366.385354072"/>
		<node id="1293894328" x="461557.8229942668" y="5481024.438439963"/>
		<node id="1293894331" x="461540.1205074836" y="5481028.787934898"/>
		<node id="1293894391" x="461540.65355315455" y="5481026.304880663"/>
		<node id="1293894393" x="461555.5417939904" y="5481017.3279086"/>
		<node id="1293894414" x="461532.350564361" y="5481032.267001062"/>
		<node id="1293894445" x="461546.3364992586" y="5481030.945499216"/>
		<node id="1295955192" x="461653.59216313524" y="5481103.45825329"/>
		<node id="1295955195" x="461694.2162275258" y="5481097.369496743"/>
		<node id="1298546209" x="461755.3426633816" y="5481175.35569463"/>
		<node id="1298546228" x="461828.49797094404" y="5481287.379369622"/>
		<node id="1298546239" x="461806.61039311584" y="5481277.3817908745"/>
		<node id="1305026592" x="461702.6965333436" y="5482444.148638487"/>
		<node id="1316107047" x="462031.3896763926" y="5481685.086962657"/>
		<node id="1316107166" x="462037.9693521786" y="5481732.381355462"/>
		<node id="1316107237" x="462027.2576188262" y="5481660.634020152"/>
		<node id="132331226" x="461358.90799344843" y="5481281.766577574"/>
		<node id="1362647372" x="460853.52337025455" y="5482151.423253224"/>
		<node id="1362647375" x="460835.1206962533" y="5482120.191493386"/>
		<node id="1362647414" x="460805.0787154201" y="5482140.34168954"/>
		<node id="1364262270" x="460983.030316168" y="5481478.31503392"/>
		<node id="1364262316" x="460912.88311525225" y="5481521.432011623"/>
		<node id="1364262378" x="460864.22787360643" y="5481620.141224344"/>
		<node id="1377405564" x="461976.8314453221" y="5482187.730738177"/>
		<node id="1377405571" x="462026.97791038896" y="5482269.999012418"/>
		<node id="1378555184" x="461740.86261438683" y="5482354.359166554"/>
		<node id="1381917319" x="461737.98760549666" y="5482330.620261618"/>
		<node id="1381917333" x="461762.52735739184" y="5482355.886130659"/>
		<node id="1381917336" x="461741.6509131798" y="5482359.367836069"/>
		<node id="1381917348" x="461749.22347349057" y="5482400.306639974"/>
		<node id="1381920623" x="461757.626048116" y="5482351.984721352"/>
		<node id="1409626830" x="461314.32237919036" y="5481583.089625693"/>
		<node id="1410606952" x="461554.45339136815" y="5481032.500433428"/>
		<node id="1416157295" x="460663.10196874064" y="5482203.26808469"/>
		<node id="1416157296" x="460643.7559753071" y="5482204.052408572"/>
		<node id="1416157300" x="460630.7186963002" y="5482247.0840709135"/>
		<node id="1432761744" x="460928.9273715556" y="5481906.999195588"/>
		<node id="1432761763" x="460910.35630611505" y="5481918.038894473"/>
		<node id="1433867717" x="461889.4535859449" y="5481122.541564211"/>
		<node id="1435457617" x="461269.7304250764" y="5482373.659082657"/>
		<node id="1435457619" x="461327.5729333384" y="5482334.758481036"/>
		<node id="1436519940" x="461014.37802073226" y="5481897.938500488"/>
		<node id="1437223300" x="461424.94766054803" y="5482086.272273326"/>
		<node id="1437223302" x="461394.59747662663" y="5482035.533291273"/>
		<node id="1437229406" x="461417.3865053547" y="5482060.665483091"/>
		<node id="1437241574" x="461413.1830437857" y="5482053.10163832"/>
		<node id="1444755434" x="461300.4745266883" y="5482281.917906847"/>
		<node id="1444757232" x="461220.55372438603" y="5482294.826185098"/>
		<node id="1444761051" x="461345.78417339973" y="5482251.533821018"/>
		<node id="1450516842" x="461765.06729341345" y="5481142.767631006"/>
		<node id="1450516869" x="461750.1281357216" y="5481167.220549241"/>
		<node id="1450517128" x="461985.10184567474" y="5481491.990481335"/>
		<node id="1492307449" x="461925.7529183513" y="5481434.21287184"/>
		<node id="1497651343" x="461631.0010443755" y="5481477.8911653515"/>
		<node id="1497651346" x="461631.5227088161" y="5481485.125276776"/>
		<node id="1497651352" x="461633.2412366023" y="5481488.481933013"/>
		<node id="1497651355" x="461630.17585275834" y="5481489.303971137"/>
		<node id="1497651366" x="461644.98233783635" y="5481516.272093905"/>
		<node id="1531035137" x="461696.6077668184" y="5480873.470988712"/>
		<node id="1531035171" x="461702.7997409253" y="5480895.941352574"/>
		<node id="1531035264" x="461753.4913403465" y="5480992.7789180055"/>
		<node id="1531035343" x="461785.2782183529" y="5481019.739656447"/>
		<node id="1531035349" x="461778.1681259227" y="5481024.37001634"/>
		<node id="1531035358" x="461792.9939429386" y="5481030.225448056"/>
		<node id="1531035448" x="461690.42574520415" y="5481100.18669518"/>
		<node id="1531035450" x="461713.7557777132" y="5481111.21878568"/>
		<node id="1557049460" x="460838.94132461515" y="5482210.553178104"/>
		<node id="1557084049" x="460899.0645768256" y="5482178.813871244"/>
		<node id="1565599150" x="461741.14252635767" y="5481454.059483872"/>
		<node id="1569110270" x="460925.37580302835" y="5482398.238695314"/>
		<node id="1571732114" x="461746.1021274365" y="5482232.936653632"/>
		<node id="162629306" x="461139.10599785397" y="5482494.973080635"/>
		<node id="162629315" x="461117.76878900576" y="5482506.8434150545"/>
		<node id="1628350654" x="461875.0062505888" y="5481378.265859667"/>
		<node id="1628359358" x="461872.1953173724" y="5481355.38255462"/>
		<node id="1628359361" x="461850.57411148224" y="5481388.631695828"/>
		<node id="1628359372" x="461868.1176132539" y="5481369.953291122"/>
		<node id="1628400908" x="461969.9013414645" y="5481459.176170389"/>
		<node id="1628406125" x="461959.8982356846" y="5481536.081892699"/>
		<node id="1628406128" x="461985.2752304811" y="5481540.808108084"/>
		<node id="1628411128" x="461984.4630782082" y="5481512.5964552965"/>
		<node id="1628551113" x="462015.92509064137" y="5481504.917300686"/>
		<node id="1634455747" x="460619.5800539298" y="5482002.190965379"/>
		<node id="1634455756" x="460826.2537351787" y="5482108.792505798"/>
		<node id="1634455759" x="460766.0825245707" y="5482233.64597459"/>
		<node id="1634455769" x="460783.4444293935" y="5482258.114140405"/>
		<node id="1634480194" x="461531.39218775695" y="5482495.351019047"/>
		<node id="1634539412" x="461709.64569409925" y="5481882.154261948"/>
		<node id="1636519479" x="461803.5176371264" y="5480999.9555207295"/>
		<node id="1637307915" x="462067.6113695577" y="5481263.877007144"/>
		<node id="1643932782" x="461162.8640509632" y="5481666.115594719"/>
		<node id="1671577984" x="461824.1773339718" y="5480997.876496872"/>
		<node id="1722387850" x="460964.9319597533" y="5481599.229906521"/>
		<node id="1722387860" x="460991.4341937222" y="5481642.73401547"/>
		<node id="1743821866" x="461344.7610869567" y="5481137.500267748"/>
		<node id="1743822191" x="461322.4788835672" y="5481322.504994105"/>
		<node id="1743822687" x="461131.58024624316" y="5481464.580787727"/>
		<node id="1743822738" x="460979.5192917305" y="5481472.514322677"/>
		<node id="1743822811" x="460908.14736888814" y="5481522.633310658"/>
		<node id="1743822827" x="460894.67336742533" y="5481530.512393416"/>
		<node id="1743822854" x="460937.86282643676" y="5481564.624346897"/>
		<node id="1743822878" x="460856.7452237335" y="5481615.025027451"/>
		<node id="1743822894" x="460842.5371734137" y="5481630.592019006"/>
		<node id="1750750866" x="461890.4934072379" y="5481111.69432739"/>
		<node id="1754245066" x="461139.2748631787" y="5481434.363003425"/>
		<node id="1755134086" x="461670.3630146849" y="5480998.420569728"/>
		<node id="1755134168" x="461404.78516549425" y="5482052.571768514"/>
		<node id="1755134174" x="461415.5456200262" y="5482070.729128449"/>
		<node id="1756175122" x="461992.37868578546" y="5481363.650024673"/>
		<node id="1756175127" x="461954.2563029019" y="5481396.902485731"/>
		<node id="1756175132" x="462038.2264085246" y="5481438.154648596"/>
		<node id="1756175134" x="461987.0385810697" y="5481452.864116011"/>
		<node id="1756265330" x="461744.6010009808" y="5482377.291528476"/>
		<node id="1756265332" x="461681.9706111555" y="5482378.253487857"/>
		<node id="1756265374" x="461641.5435381716" y="5482430.580653166"/>
		<node id="1756290981" x="461277.5091861138" y="5481855.217933773"/>
		<node id="1756290989" x="461218.8735912127" y="5481892.2456793105"/>
		<node id="1756301709" x="461224.72199866694" y="5481628.675265491"/>
		<node id="1756301712" x="461289.1710941033" y="5481733.827224748"/>
		<node id="1756960878" x="461623.1944498885" y="5482421.637413"/>
		<node id="1756960879" x="461651.15145638154" y="5482456.017714353"/>
		<node id="1757085042" x="462262.0355232706" y="5480632.833069751"/>
		<node id="1757085071" x="462017.83449047944" y="5480942.314779029"/>
		<node id="1757085075" x="461967.8595911395" y="5481010.137352159"/>
		<node id="1757085077" x="461911.1577658623" y="5481080.230918648"/>
		<node id="1757085079" x="461904.86863575905" y="5481088.324178626"/>
		<node id="1757437969" x="461619.4142803586" y="5482448.436036693"/>
		<node id="1757437971" x="461625.082414681" y="5482426.471564628"/>
		<node id="1757437979" x="461616.04900020384" y="5482406.545013309"/>
		<node id="1757437993" x="461588.8033752122" y="5482458.891058849"/>
		<node id="1757469961" x="461811.6486434328" y="5482352.462489726"/>
		<node id="1757469965" x="461837.67611764197" y="5482333.702320616"/>
		<node id="1761544137" x="460918.7276658299" y="5482405.335097711"/>
		<node id="1762366893" x="461065.67965818977" y="5482211.788165331"/>
		<node id="1763597034" x="461329.5669810167" y="5482339.19153495"/>
		<node id="1766510799" x="461082.7945643078" y="5482223.128711555"/>
		<node id="1766510802" x="461086.287044078" y="5482225.394108004"/>
		<node id="1766510806" x="461074.0939741124" y="5482243.080805198"/>
		<node id="1766510815" x="461017.853001882" y="5482257.67989738"/>
		<node id="1766510817" x="461094.7602886822" y="5482267.003830888"/>
		<node id="1766510820" x="461002.1092344733" y="5482267.954203581"/>
		<node id="1766510826" x="461026.9465337094" y="5482273.513642082"/>
		<node id="1766510829" x="461010.65329910215" y="5482282.902410856"/>
		<node id="1766510832" x="460976.43210034724" y="5482288.77270575"/>
		<node id="1766510841" x="460983.9525746322" y="5482301.348946383"/>
		<node id="1766510860" x="460967.7936667652" y="5482311.270547642"/>
		<node id="1766510864" x="460957.5635210827" y="5482316.769297537"/>
		<node id="1769873514" x="461475.9206942762" y="5482485.380414084"/>
		<node id="1772909330" x="461408.3168017828" y="5482485.391145026"/>
		<node id="1772909343" x="461317.83558869973" y="5482496.660564825"/>
		<node id="1773386542" x="460638.82113436615" y="5482024.921834541"/>
		<node id="1773386543" x="460645.82978485274" y="5482021.6026079105"/>
		<node id="1773386549" x="460765.3954729628" y="5482059.4989976045"/>
		<node id="1787986128" x="460736.9451373614" y="5481850.885896611"/>
		<node id="1787986136" x="460723.6830287348" y="5481858.875073974"/>
		<node id="1787986138" x="460720.6397504026" y="5481860.7092035925"/>
		<node id="1838987646" x="461773.46146684414" y="5481422.90296666"/>
		<node id="1838987648" x="461774.670480115" y="5481433.156353723"/>
		<node id="186083577" x="460638.72440791875" y="5482006.488932747"/>
		<node id="186083602" x="460671.9569330087" y="5482187.850340767"/>
		<node id="186083614" x="460653.789459356" y="5482249.641589482"/>
		<node id="186083622" x="460723.81169216003" y="5482278.299636991"/>
		<node id="186083624" x="460731.5909845316" y="5482258.320242653"/>
		<node id="186084231" x="461852.766648896" y="5480918.717159077"/>
		<node id="188476591" x="461525.5498375144" y="5481446.6470925035"/>
		<node id="188476598" x="461465.49807241873" y="5481482.981642548"/>
		<node id="188476603" x="461408.09408996615" y="5481517.719396287"/>
		<node id="1887394932" x="461757.5957818342" y="5482245.3526737075"/>
		<node id="1887394933" x="461769.14100396604" y="5482250.663986884"/>
		<node id="1887394936" x="461707.7971834088" y="5482255.596845482"/>
		<node id="1887394942" x="461713.1443354681" y="5482272.447495484"/>
		<node id="1887394944" x="461711.3703828314" y="5482285.923780058"/>
		<node id="1898987705" x="460786.8874381079" y="5482189.98069693"/>
		<node id="1910266983" x="461661.58877302636" y="5481364.328878679"/>
		<node id="1912025948" x="461310.4750582552" y="5481576.790781548"/>
		<node id="1917549516" x="461199.2211367928" y="5481587.208631749"/>
		<node id="1919066557" x="460917.37372158875" y="5481801.60579943"/>
		<node id="1919066568" x="460867.34798255353" y="5481830.037099143"/>
		<node id="1919230168" x="460639.03228573024" y="5482031.101904857"/>
		<node id="1919230174" x="460662.7454222647" y="5482098.539331502"/>
		<node id="1920711832" x="460947.1353792745" y="5482037.527200232"/>
		<node id="1920711836" x="460945.35860264703" y="5482054.405868747"/>
		<node id="1920843207" x="461197.1728126666" y="5481722.928923465"/>
		<node id="1920865881" x="461259.0460706004" y="5481684.643901654"/>
		<node id="1924123421" x="461198.191473711" y="5481724.600492825"/>
		<node id="1924123426" x="461194.07442259026" y="5481727.231363442"/>
		<node id="1927733855" x="461854.34414059686" y="5481117.527994873"/>
		<node id="1927740980" x="461792.3897387423" y="5481013.241484307"/>
		<node id="1928067799" x="460687.2541769761" y="5482543.904549965"/>
		<node id="1937837946" x="460886.53451328346" y="5482417.184032148"/>
		<node id="1940357607" x="461820.325070566" y="5482346.29802531"/>
		<node id="1978075231" x="460751.1972816135" y="5482060.123631259"/>
		<node id="1978075234" x="460728.3584945911" y="5482068.770938532"/>
		<node id="1978077722" x="460601.4723318205" y="5481863.580473016"/>
		<node id="1978123427" x="461964.3546471596" y="5481450.064760195"/>
		<node id="1978123441" x="462008.90474621824" y="5481596.266605262"/>
		<node id="1982590583" x="460894.5268787124" y="5482403.64064998"/>
		<node id="2001309123" x="461077.8864840127" y="5482238.673276563"/>
		<node id="2003730294" x="461664.82324722887" y="5481029.634141522"/>
		<node id="2003740569" x="461809.0140894957" y="5481257.541703452"/>
		<node id="2003751502" x="461606.69761157036" y="5481118.1522166515"/>
		<node id="2003819851" x="460609.1431139358" y="5481925.885809723"/>
		<node id="2004844603" x="461119.12440430827" y="5481446.658413399"/>
		<node id="2005139869" x="461440.42098775436" y="5482490.578641382"/>
		<node id="2005190169" x="460905.7117694439" y="5482414.178173811"/>
		<node id="2010620879" x="461840.9751806279" y="5481392.578946264"/>
		<node id="2010625379" x="461781.91842653556" y="5481428.636194006"/>
		<node id="2010655360" x="461828.2889557354" y="5481244.020903111"/>
		<node id="2010655361" x="461850.68795628956" y="5481248.411558906"/>
		<node id="2010655362" x="461816.13970553374" y="5481225.138680707"/>
		<node id="2010661157" x="461785.0524398899" y="5481176.859800892"/>
		<node id="2010766289" x="461740.50969795673" y="5481063.0017686"/>
		<node id="2010766291" x="461731.4605511917" y="5481089.648162437"/>
		<node id="2010826495" x="461700.70956878416" y="5481072.997907711"/>
		<node id="2010843505" x="461757.3088155653" y="5481052.744513895"/>
		<node id="201161615" x="460955.42313237" y="5482032.776120986"/>
		<node id="201161619" x="460912.3799275313" y="5481960.917509868"/>
		<node id="201161625" x="460977.03993658203" y="5482021.303426811"/>
		<node id="201161629" x="460983.6603646522" y="5482031.52909327"/>
		<node id="201161633" x="460876.1882363551" y="5482093.28051601"/>
		<node id="201161637" x="460867.9938960611" y="5482082.754959327"/>
		<node id="201161691" x="461081.0898919199" y="5482068.378805929"/>
		<node id="201161696" x="461039.0776625175" y="5482000.658863799"/>
		<node id="201161704" x="461032.37916476006" y="5481989.63319553"/>
		<node id="201161708" x="460962.2225698911" y="5482043.723149057"/>
		<node id="201161711" x="461005.69767254096" y="5482114.378320238"/>
		<node id="201161719" x="460832.18821230944" y="5482211.113068307"/>
		<node id="201161731" x="460802.38697789225" y="5482197.15162116"/>
		<node id="201161735" x="460778.44549744285" y="5482188.34031188"/>
		<node id="2012046210" x="461628.64371134294" y="5481486.702025485"/>
		<node id="2014274643" x="461868.51206397737" y="5481140.209648918"/>
		<node id="2015823787" x="461342.63884290523" y="5481139.572114156"/>
		<node id="2015823792" x="461342.2706854056" y="5481143.844010144"/>
		<node id="2025256879" x="461875.155581984" y="5481588.393749243"/>
		<node id="2026240546" x="461464.1386233076" y="5481040.019189027"/>
		<node id="2026240582" x="461405.48619549256" y="5481092.487694264"/>
		<node id="2026240583" x="461403.39384030894" y="5481093.669870096"/>
		<node id="2026240585" x="461385.06768190034" y="5481104.01685056"/>
		<node id="2026240587" x="461384.9821835308" y="5481112.411498846"/>
		<node id="2037827648" x="461083.4493480559" y="5482229.639170044"/>
		<node id="2058510845" x="461639.26928733004" y="5480918.656576208"/>
		<node id="2068643909" x="461363.83201838686" y="5481180.213804686"/>
		<node id="2068643910" x="461334.7864739761" y="5481197.85237935"/>
		<node id="2068656771" x="460832.3145841559" y="5481537.374556505"/>
		<node id="2071371983" x="461333.7280395083" y="5481395.103303302"/>
		<node id="2071376438" x="461276.0471820934" y="5481433.71344638"/>
		<node id="2072565702" x="460909.63468317705" y="5481582.64851524"/>
		<node id="2072565706" x="460923.9090191879" y="5481605.638308477"/>
		<node id="2074380218" x="461357.84786182013" y="5481974.055365275"/>
		<node id="2077701677" x="460864.5654193248" y="5482077.320620846"/>
		<node id="2080821438" x="461571.75772525085" y="5482324.46156211"/>
		<node id="2080821464" x="461606.90664099203" y="5482383.495097794"/>
		<node id="21649767" x="460583.5676967094" y="5481738.165622829"/>
		<node id="2168173206" x="461562.7724494485" y="5481028.817409984"/>
		<node id="2168173211" x="461567.0430993712" y="5481037.61498231"/>
		<node id="21686456" x="462042.6283265652" y="5481782.624249831"/>
		<node id="21686467" x="461976.9824016106" y="5481524.266796868"/>
		<node id="21686469" x="461969.13792400743" y="5481510.746451563"/>
		<node id="21686470" x="461951.4235234809" y="5481477.871880299"/>
		<node id="21686472" x="461933.5900127579" y="5481446.643650044"/>
		<node id="21686475" x="461897.57034363673" y="5481393.940248306"/>
		<node id="21686479" x="461905.51383141417" y="5481361.398215583"/>
		<node id="21686610" x="461889.8059747694" y="5481336.959466097"/>
		<node id="21732922" x="461870.5503540456" y="5482306.000077288"/>
		<node id="21732924" x="461766.9515269656" y="5482383.6833642945"/>
		<node id="21732935" x="460902.2414493226" y="5482410.956588324"/>
		<node id="21732936" x="460834.2584019221" y="5482336.086459697"/>
		<node id="21732938" x="460698.94151862524" y="5482161.617649907"/>
		<node id="2216959376" x="461874.12360288703" y="5481265.3694438385"/>
		<node id="2216959377" x="461851.87771786266" y="5481279.766924162"/>
		<node id="2216965403" x="461820.7826506102" y="5481232.355097343"/>
		<node id="2216965404" x="461851.72632174165" y="5481212.493391654"/>
		<node id="2216965405" x="461844.42210210394" y="5481217.302912465"/>
		<node id="2216965406" x="461833.5919326124" y="5481224.427386894"/>
		<node id="2249259135" x="460821.86308416666" y="5482053.067405789"/>
		<node id="2262023602" x="460619.81072142516" y="5481915.71371027"/>
		<node id="2299833705" x="461554.1843442805" y="5482489.420170421"/>
		<node id="2302357554" x="460681.7057236192" y="5482500.528810676"/>
		<node id="2302357555" x="460673.2330060933" y="5482501.590484204"/>
		<node id="2302357556" x="460660.93164396926" y="5482502.979956298"/>
		<node id="2302357559" x="460682.2417140779" y="5482504.560775653"/>
		<node id="2302357561" x="460670.9912708288" y="5482506.064950904"/>
		<node id="2302357562" x="460657.3967181196" y="5482507.886234966"/>
		<node id="2302357563" x="460685.78813948715" y="5482532.408001675"/>
		<node id="2302357564" x="460674.295416091" y="5482533.446961214"/>
		<node id="2366151172" x="461981.2611141775" y="5481345.093796065"/>
		<node id="2366151182" x="461958.4690815832" y="5481329.965430135"/>
		<node id="2366151191" x="461978.9248687016" y="5481346.622105844"/>
		<node id="2366151195" x="461989.78893643344" y="5481365.180094966"/>
		<node id="2366153936" x="461985.4263569088" y="5481342.007358163"/>
		<node id="2366164558" x="462055.43755487213" y="5481482.050860046"/>
		<node id="2366164559" x="462047.2701430436" y="5481458.526514258"/>
		<node id="2366164560" x="462035.80280766415" y="5481439.61683448"/>
		<node id="2366177569" x="461992.98315814877" y="5481370.361044509"/>
		<node id="2366180243" x="461979.24855438276" y="5481336.93613616"/>
		<node id="2394139043" x="461587.6523352729" y="5481071.635342515"/>
		<node id="2434557115" x="462007.7418865871" y="5482278.237877062"/>
		<node id="2449445967" x="461932.5477074116" y="5482216.245680205"/>
		<node id="248539899" x="461106.1018080857" y="5481572.851002771"/>
		<node id="248539900" x="461160.14969721215" y="5481540.14626832"/>
		<node id="248539901" x="461167.5924008443" y="5481535.601662616"/>
		<node id="248539902" x="461172.45370585204" y="5481532.698649525"/>
		<node id="248539903" x="461230.1806498308" y="5481497.767097929"/>
		<node id="248539904" x="461351.3345744136" y="5481424.452289431"/>
		<node id="248539905" x="461408.739195211" y="5481389.713947022"/>
		<node id="248539906" x="461468.79162812437" y="5481353.378781161"/>
		<node id="248539911" x="461132.46678046556" y="5482151.519686029"/>
		<node id="248539912" x="461056.8376612106" y="5482197.7092014095"/>
		<node id="248780644" x="461184.88389083516" y="5482235.520843877"/>
		<node id="248780650" x="461009.1549473306" y="5482458.36580057"/>
		<node id="248780651" x="461344.9708557573" y="5482495.57884022"/>
		<node id="248780652" x="461400.55781871965" y="5482493.184124909"/>
		<node id="248780653" x="461499.1297403705" y="5482481.058496438"/>
		<node id="248780661" x="462044.680320397" y="5481826.692589948"/>
		<node id="248781409" x="461355.15091020823" y="5482248.810291529"/>
		<node id="248781410" x="461142.2170183449" y="5482261.640393216"/>
		<node id="248781411" x="461130.378511906" y="5482269.129265669"/>
		<node id="248781741" x="461715.20339425793" y="5482026.0259560775"/>
		<node id="248781744" x="461833.18045199726" y="5481954.923119787"/>
		<node id="248782307" x="461292.1852090055" y="5481460.237587233"/>
		<node id="248782308" x="461551.16633735993" y="5481182.904761863"/>
		<node id="248782310" x="461604.8320763114" y="5481271.059172325"/>
		<node id="248782313" x="461487.42810086824" y="5481221.81099154"/>
		<node id="248782314" x="461621.2522934561" y="5481142.120201779"/>
		<node id="248782316" x="461658.7889700352" y="5481504.0343084885"/>
		<node id="248782319" x="461674.199086571" y="5481229.090715132"/>
		<node id="248782320" x="461540.93343306397" y="5481309.721324205"/>
		<node id="248782321" x="461583.3808487891" y="5481411.651878"/>
		<node id="248783352" x="461407.3703274538" y="5481252.439281293"/>
		<node id="248783354" x="461479.51300057577" y="5481208.78102381"/>
		<node id="248783355" x="461415.75847654825" y="5481102.81035528"/>
		<node id="248783356" x="461543.4124128436" y="5481170.118162882"/>
		<node id="248783357" x="461479.0892092216" y="5481064.53990456"/>
		<node id="248783753" x="461286.94151272083" y="5481591.032962347"/>
		<node id="249820010" x="460598.3064191085" y="5481739.059823373"/>
		<node id="249820012" x="460761.2883067251" y="5481929.45939885"/>
		<node id="249820013" x="460922.7536603804" y="5481810.495002447"/>
		<node id="25103088" x="461682.77342268423" y="5481705.511967269"/>
		<node id="25105821" x="461722.7604367047" y="5481076.178635181"/>
		<node id="25117304" x="460649.4942598285" y="5481718.177894837"/>
		<node id="251716286" x="461841.96119275776" y="5481265.249507412"/>
		<node id="251716287" x="461904.9835803269" y="5481215.868228124"/>
		<node id="251753077" x="461968.7489140062" y="5482158.6246937355"/>
		<node id="25283538" x="461678.58612660324" y="5482450.099237461"/>
		<node id="25283546" x="461655.5864681927" y="5482411.081128481"/>
		<node id="25283557" x="461353.9989447184" y="5482495.2035918115"/>
		<node id="25283578" x="461721.5947875032" y="5482365.189755434"/>
		<node id="25283582" x="461777.8502221813" y="5482350.497759236"/>
		<node id="25283584" x="461819.28490738693" y="5482324.947722189"/>
		<node id="25283588" x="461877.4003738498" y="5482280.959075172"/>
		<node id="25283590" x="461921.21459905844" y="5482231.978812097"/>
		<node id="25283591" x="461955.9330369695" y="5482179.860346568"/>
		<node id="2530389427" x="462000.6327094361" y="5481036.380913661"/>